Circuit: * Z:\home\richard\code\uni\AUV\Draft1.asc

.OP point found by inspection.

Date: Thu Jul 04 21:48:25 2024
Total elapsed time: 0.037 seconds.

tnom = 27
temp = 27
method = modified trap
totiter = 4679
traniter = 4679
tranpoints = 2009
accept = 1784
rejected = 225
matrix size = 6
fillins = 0
solver = Normal
Matrix Compiler1: 378 bytes object code size  0.1/0.1/[0.1]
Matrix Compiler2: off  [0.1]/0.1/0.1

